&NAMGEN
   MAXL=360, MAXB=181,
   MLEVEL=60, MLEVELIST="1/TO/60",
   MNAUF=159,METAPAR=77,
   RLO0=-179.0, RLO1=180.0, RLA0=-90.0, RLA1=90.0,
   MGAUSS=1,
   MSMOOTH=0,META=0,
   MDPDETA=1
/
&NAMFX2
   NX=360, NY=181,
   MAXTIME=400,JPOLY=4,
   JHRF=3,
   RLO0=-179.0, RLA0=-90.0, DX=1.0/1.0, DY=1.0/1.0
/

